<?xml version="1.0" encoding="UTF-8"?>

<!-- generated on 2026-06-26T06:42:19.257847+07:00 by Eclipse SUMO netconvert 1.27.0
<netconvertConfiguration xmlns:xsi="http://www.w3.org/2001/XMLSchema-instance" xsi:noNamespaceSchemaLocation="http://sumo.dlr.de/xsd/netconvertConfiguration.xsd">

    <input>
        <type-files value="/usr/share/sumo/data/typemap/osmNetconvert.typ.xml,/usr/share/sumo/data/typemap/osmNetconvertUrbanDe.typ.xml"/>
        <osm-files value="map/raw_osm/source.osm.xml.gz"/>
    </input>

    <output>
        <output-file value="map/net/network.net.xml"/>
        <output.street-names value="true"/>
        <output.original-names value="true"/>
    </output>

    <projection>
        <proj.utm value="true"/>
    </projection>

    <processing>
        <geometry.remove value="true"/>
    </processing>

    <tls_building>
        <tls.discard-simple value="true"/>
        <tls.join value="true"/>
        <tls.guess-signals value="true"/>
        <tls.default-type value="static"/>
    </tls_building>

    <edge_removal>
        <keep-edges.by-vclass value="passenger"/>
        <remove-edges.isolated value="true"/>
    </edge_removal>

    <junctions>
        <no-turnarounds value="true"/>
        <junctions.join value="true"/>
    </junctions>

    <formats>
        <osm.turn-lanes value="true"/>
    </formats>

    <report>
        <verbose value="true"/>
    </report>

</netconvertConfiguration>
-->

<net version="1.20" junctionCornerDetail="5" limitTurnSpeed="5.50" xmlns:xsi="http://www.w3.org/2001/XMLSchema-instance" xsi:noNamespaceSchemaLocation="http://sumo.dlr.de/xsd/net_file.xsd">

    <location netOffset="-684114.68,-1191702.58" convBoundary="0.00,0.00,1553.91,1774.11" origBoundary="106.683874,10.775855,106.698116,10.791836" projParameter="+proj=utm +zone=48 +ellps=WGS84 +datum=WGS84 +units=m +no_defs"/>

    <type id="highway.primary" priority="12" numLanes="2" speed="13.89" disallow="tram rail_urban rail rail_electric rail_fast ship container cable_car subway aircraft wheelchair scooter drone" oneway="0"/>
    <type id="highway.primary_link" priority="7" numLanes="1" speed="13.89" disallow="tram rail_urban rail rail_electric rail_fast ship container cable_car subway aircraft wheelchair scooter drone" oneway="0"/>
    <type id="highway.residential" priority="3" numLanes="1" speed="13.89" disallow="tram rail_urban rail rail_electric rail_fast ship container cable_car subway aircraft wheelchair scooter drone" oneway="0"/>
    <type id="highway.secondary" priority="11" numLanes="1" speed="13.89" disallow="tram rail_urban rail rail_electric rail_fast ship container cable_car subway aircraft wheelchair scooter drone" oneway="0"/>
    <type id="highway.tertiary" priority="10" numLanes="1" speed="13.89" disallow="tram rail_urban rail rail_electric rail_fast ship container cable_car subway aircraft wheelchair scooter drone" oneway="0"/>

    <edge id=":10291112014_0" function="internal">
        <lane id=":10291112014_0_0" index="0" disallow="tram rail_urban rail rail_electric rail_fast ship container cable_car subway aircraft wheelchair scooter drone" speed="6.40" length="9.04" shape="1104.88,1205.14 1103.25,1207.02 1102.64,1208.95 1103.06,1210.93 1104.51,1212.96"/>
    </edge>
    <edge id=":10291112014_1" function="internal">
        <lane id=":10291112014_1_0" index="0" disallow="tram rail_urban rail rail_electric rail_fast ship container cable_car subway aircraft wheelchair scooter drone" speed="6.71" length="9.29" shape="1094.55,1202.55 1096.50,1204.05 1098.52,1204.58 1100.62,1204.14 1102.79,1202.72"/>
    </edge>
    <edge id=":10291112014_2" function="internal">
        <lane id=":10291112014_2_0" index="0" disallow="tram rail_urban rail rail_electric rail_fast ship container cable_car subway aircraft wheelchair scooter drone" speed="13.89" length="14.41" shape="1094.55,1202.55 1104.51,1212.96"/>
        <lane id=":10291112014_2_1" index="1" disallow="tram rail_urban rail rail_electric rail_fast ship container cable_car subway aircraft wheelchair scooter drone" speed="13.89" length="14.41" shape="1092.24,1204.76 1102.20,1215.17"/>
        <lane id=":10291112014_2_2" index="2" disallow="tram rail_urban rail rail_electric rail_fast ship container cable_car subway aircraft wheelchair scooter drone" speed="13.89" length="14.41" shape="1089.93,1206.97 1099.88,1217.38"/>
    </edge>
    <edge id=":11364145943_0" function="internal">
        <lane id=":11364145943_0_0" index="0" disallow="tram rail_urban rail rail_electric rail_fast ship container cable_car subway aircraft wheelchair scooter drone" speed="13.89" length="6.69" shape="1311.46,1429.45 1316.08,1434.28"/>
        <lane id=":11364145943_0_1" index="1" disallow="tram rail_urban rail rail_electric rail_fast ship container cable_car subway aircraft wheelchair scooter drone" speed="13.89" length="6.69" shape="1309.15,1431.66 1313.77,1436.49"/>
        <lane id=":11364145943_0_2" index="2" disallow="tram rail_urban rail rail_electric rail_fast ship container cable_car subway aircraft wheelchair scooter drone" speed="13.89" length="6.69" shape="1306.84,1433.87 1311.45,1438.70"/>
    </edge>
    <edge id=":11364145943_3" function="internal">
        <lane id=":11364145943_3_0" index="0" disallow="tram rail_urban rail rail_electric rail_fast ship container cable_car subway aircraft wheelchair scooter drone" speed="7.24" length="7.88" shape="1305.28,1438.54 1308.40,1437.02 1310.85,1436.17 1312.64,1436.00 1313.77,1436.49"/>
        <lane id=":11364145943_3_1" index="1" disallow="tram rail_urban rail rail_electric rail_fast ship container cable_car subway aircraft wheelchair scooter drone" speed="6.30" length="7.88" shape="1305.28,1438.54 1307.16,1437.75 1308.81,1437.51 1310.24,1437.83 1311.45,1438.70"/>
    </edge>
    <edge id=":12447084683_0" function="internal">
        <lane id=":12447084683_0_0" index="0" disallow="tram rail_urban rail rail_electric rail_fast ship container cable_car subway aircraft wheelchair scooter drone" speed="13.89" length="5.92" shape="1067.54,1188.27 1066.35,1189.50 1065.82,1190.62 1065.29,1191.74 1064.11,1192.99"/>
        <lane id=":12447084683_0_1" index="1" disallow="tram rail_urban rail rail_electric rail_fast ship container cable_car subway aircraft wheelchair scooter drone" speed="13.89" length="5.92" shape="1067.54,1188.27 1066.04,1189.11 1064.82,1189.36 1063.61,1189.62 1062.13,1190.49"/>
    </edge>
    <edge id=":12447084685_0" function="internal">
        <lane id=":12447084685_0_0" index="0" disallow="tram rail_urban rail rail_electric rail_fast ship container cable_car subway aircraft wheelchair scooter drone" speed="13.89" length="6.47" shape="1058.22,1187.16 1059.51,1185.79 1060.12,1184.59 1060.73,1183.38 1062.01,1182.00"/>
    </edge>
    <edge id=":13156774609_0" function="internal">
        <lane id=":13156774609_0_0" index="0" disallow="tram rail_urban rail rail_electric rail_fast ship container cable_car subway aircraft wheelchair scooter drone" speed="13.89" length="0.10" shape="642.01,1523.71 642.03,1523.63"/>
    </edge>
    <edge id=":13156774609_1" function="internal">
        <lane id=":13156774609_1_0" index="0" disallow="tram rail_urban rail rail_electric rail_fast ship container cable_car subway aircraft wheelchair scooter drone" speed="13.89" length="0.10" shape="640.04,1521.21 639.98,1521.24"/>
    </edge>
    <edge id=":2036141666_0" function="internal">
        <lane id=":2036141666_0_0" index="0" disallow="tram rail_urban rail rail_electric rail_fast ship container cable_car subway aircraft wheelchair scooter drone" speed="8.82" length="8.74" shape="565.66,1037.12 563.38,1036.86 561.25,1037.10 559.27,1037.83 557.46,1039.06"/>
    </edge>
    <edge id=":2036141666_1" function="internal">
        <lane id=":2036141666_1_0" index="0" disallow="tram rail_urban rail rail_electric rail_fast ship container cable_car subway aircraft wheelchair scooter drone" speed="15.28" length="9.29" shape="564.39,1032.62 557.46,1039.06"/>
        <lane id=":2036141666_1_1" index="1" disallow="tram rail_urban rail rail_electric rail_fast ship container cable_car subway aircraft wheelchair scooter drone" speed="15.28" length="9.29" shape="562.19,1030.31 555.39,1036.63"/>
        <lane id=":2036141666_1_2" index="2" disallow="tram rail_urban rail rail_electric rail_fast ship container cable_car subway aircraft wheelchair scooter drone" speed="15.28" length="9.29" shape="559.98,1027.99 553.31,1034.19"/>
    </edge>
    <edge id=":2036141676_0" function="internal">
        <lane id=":2036141676_0_0" index="0" disallow="tram rail_urban rail rail_electric rail_fast ship container cable_car subway aircraft wheelchair scooter drone" speed="8.32" length="7.40" shape="543.12,1023.04 543.98,1021.92 544.56,1020.39 544.85,1018.43 544.86,1016.06"/>
    </edge>
    <edge id=":2036141676_1" function="internal">
        <lane id=":2036141676_1_0" index="0" disallow="tram rail_urban rail rail_electric rail_fast ship container cable_car subway aircraft wheelchair scooter drone" speed="15.28" length="7.68" shape="543.12,1023.04 548.81,1017.89"/>
        <lane id=":2036141676_1_1" index="1" disallow="tram rail_urban rail rail_electric rail_fast ship container cable_car subway aircraft wheelchair scooter drone" speed="15.28" length="7.68" shape="545.26,1025.42 550.95,1020.27"/>
        <lane id=":2036141676_1_2" index="2" disallow="tram rail_urban rail rail_electric rail_fast ship container cable_car subway aircraft wheelchair scooter drone" speed="15.28" length="7.68" shape="547.40,1027.80 553.10,1022.64"/>
    </edge>
    <edge id=":2036141706_0" function="internal">
        <lane id=":2036141706_0_0" index="0" disallow="tram rail_urban rail rail_electric rail_fast ship container cable_car subway aircraft wheelchair scooter drone" speed="13.89" length="21.09" shape="611.84,1065.65 606.56,1061.14 601.75,1058.34 597.56,1056.38 594.15,1054.38"/>
    </edge>
    <edge id=":2036141706_1" function="internal">
        <lane id=":2036141706_1_0" index="0" disallow="tram rail_urban rail rail_electric rail_fast ship container cable_car subway aircraft wheelchair scooter drone" speed="13.89" length="21.38" shape="611.84,1065.65 595.88,1051.42"/>
        <lane id=":2036141706_1_1" index="1" disallow="tram rail_urban rail rail_electric rail_fast ship container cable_car subway aircraft wheelchair scooter drone" speed="13.89" length="21.38" shape="614.15,1063.42 598.18,1049.20"/>
        <lane id=":2036141706_1_2" index="2" disallow="tram rail_urban rail rail_electric rail_fast ship container cable_car subway aircraft wheelchair scooter drone" speed="13.89" length="21.38" shape="616.45,1061.20 600.48,1046.98"/>
        <lane id=":2036141706_1_3" index="3" disallow="tram rail_urban rail rail_electric rail_fast ship container cable_car subway aircraft wheelchair scooter drone" speed="13.89" length="21.38" shape="616.45,1061.20 602.78,1044.75"/>
    </edge>
    <edge id=":2036141724_0" function="internal">
        <lane id=":2036141724_0_0" index="0" disallow="tram rail_urban rail rail_electric rail_fast ship container cable_car subway aircraft wheelchair scooter drone" speed="13.89" length="8.72" shape="653.57,925.16 647.41,918.99"/>
    </edge>
    <edge id=":2036141724_1" function="internal">
        <lane id=":2036141724_1_0" index="0" disallow="tram rail_urban rail rail_electric rail_fast ship container cable_car subway aircraft wheelchair scooter drone" speed="6.72" length="10.01" shape="653.57,925.16 653.02,923.83 653.57,922.02 655.20,919.73 657.91,916.97"/>
    </edge>
    <edge id=":2036141724_2" function="internal">
        <lane id=":2036141724_2_0" index="0" disallow="tram rail_urban rail rail_electric rail_fast ship container cable_car subway aircraft wheelchair scooter drone" speed="6.69" length="9.32" shape="649.67,916.73 651.72,918.27 653.77,918.83 655.84,918.39 657.91,916.97"/>
    </edge>
    <edge id=":2036141724_3" function="internal">
        <lane id=":2036141724_3_0" index="0" disallow="tram rail_urban rail rail_electric rail_fast ship container cable_car subway aircraft wheelchair scooter drone" speed="13.89" length="8.72" shape="649.67,916.73 655.83,922.89"/>
    </edge>
    <edge id=":2036141724_4" function="internal">
        <lane id=":2036141724_4_0" index="0" disallow="tram rail_urban rail rail_electric rail_fast ship container cable_car subway aircraft wheelchair scooter drone" speed="6.44" length="9.03" shape="647.28,926.85 648.84,924.91 649.37,922.95 648.90,920.98 647.41,918.99"/>
    </edge>
    <edge id=":2036141724_5" function="internal">
        <lane id=":2036141724_5_0" index="0" disallow="tram rail_urban rail rail_electric rail_fast ship container cable_car subway aircraft wheelchair scooter drone" speed="13.89" length="14.52" shape="647.28,926.85 657.91,916.97"/>
    </edge>
    <edge id=":2036141724_6" function="internal">
        <lane id=":2036141724_6_0" index="0" disallow="tram rail_urban rail rail_electric rail_fast ship container cable_car subway aircraft wheelchair scooter drone" speed="6.91" length="10.07" shape="647.28,926.85 650.24,924.33 652.65,922.83 654.51,922.35 655.83,922.89"/>
    </edge>
    <edge id=":2036141730_0" function="internal">
        <lane id=":2036141730_0_0" index="0" disallow="tram rail_urban rail rail_electric rail_fast ship container cable_car subway aircraft wheelchair scooter drone" speed="5.91" length="7.10" shape="655.98,923.04 657.17,923.74 658.60,923.70 660.26,922.91 662.17,921.38"/>
    </edge>
    <edge id=":2036141730_1" function="internal">
        <lane id=":2036141730_1_0" index="0" disallow="tram rail_urban rail rail_electric rail_fast ship container cable_car subway aircraft wheelchair scooter drone" speed="5.76" length="7.01" shape="651.66,931.24 653.33,929.42 654.24,927.82 654.36,926.45 653.71,925.30"/>
    </edge>
    <edge id=":2036141730_2" function="internal">
        <lane id=":2036141730_2_0" index="0" disallow="tram rail_urban rail rail_electric rail_fast ship container cable_car subway aircraft wheelchair scooter drone" speed="13.89" length="14.42" shape="651.66,931.24 662.17,921.38"/>
        <lane id=":2036141730_2_1" index="1" disallow="tram rail_urban rail rail_electric rail_fast ship container cable_car subway aircraft wheelchair scooter drone" speed="13.89" length="14.42" shape="653.84,933.58 664.36,923.71"/>
    </edge>
    <edge id=":2036141742_0" function="internal">
        <lane id=":2036141742_0_0" index="0" disallow="tram rail_urban rail rail_electric rail_fast ship container cable_car subway aircraft wheelchair scooter drone" speed="10.35" length="7.98" shape="523.14,979.39 523.09,977.00 523.06,975.27 522.60,973.74 521.22,971.95"/>
    </edge>
    <edge id=":2036141742_1" function="internal">
        <lane id=":2036141742_1_0" index="0" disallow="tram rail_urban rail rail_electric rail_fast ship container cable_car subway aircraft wheelchair scooter drone" speed="13.89" length="8.04" shape="526.81,977.72 521.22,971.95"/>
        <lane id=":2036141742_1_1" index="1" disallow="tram rail_urban rail rail_electric rail_fast ship container cable_car subway aircraft wheelchair scooter drone" speed="13.89" length="8.04" shape="529.11,975.50 523.51,969.72"/>
        <lane id=":2036141742_1_2" index="2" disallow="tram rail_urban rail rail_electric rail_fast ship container cable_car subway aircraft wheelchair scooter drone" speed="13.89" length="8.04" shape="531.41,973.27 525.81,967.49"/>
    </edge>
    <edge id=":2036596690_0" function="internal">
        <lane id=":2036596690_0_0" index="0" disallow="tram rail_urban rail rail_electric rail_fast ship container cable_car subway aircraft wheelchair scooter drone" speed="6.53" length="8.52" shape="1351.57,796.07 1349.77,794.62 1347.90,794.03 1345.98,794.32 1343.99,795.49"/>
        <lane id=":2036596690_0_1" index="1" disallow="tram rail_urban rail rail_electric rail_fast ship container cable_car subway aircraft wheelchair scooter drone" speed="8.03" length="13.38" shape="1353.90,793.88 1351.08,791.60 1348.15,790.69 1345.13,791.15 1342.00,792.98"/>
    </edge>
    <edge id=":2036596690_2" function="internal">
        <lane id=":2036596690_2_0" index="0" disallow="tram rail_urban rail rail_electric rail_fast ship container cable_car subway aircraft wheelchair scooter drone" speed="13.89" length="13.01" shape="1353.88,786.32 1351.15,789.25 1349.20,791.19 1347.12,792.98 1343.99,795.49"/>
        <lane id=":2036596690_2_1" index="1" disallow="tram rail_urban rail rail_electric rail_fast ship container cable_car subway aircraft wheelchair scooter drone" speed="13.89" length="13.01" shape="1351.53,784.15 1348.90,786.97 1347.02,788.84 1345.02,790.57 1342.00,792.98"/>
        <lane id=":2036596690_2_2" index="2" disallow="tram rail_urban rail rail_electric rail_fast ship container cable_car subway aircraft wheelchair scooter drone" speed="13.89" length="13.01" shape="1349.17,781.97 1346.65,784.69 1344.84,786.49 1342.92,788.15 1340.02,790.47"/>
    </edge>
    <edge id=":2230280818_0" function="internal">
        <lane id=":2230280818_0_0" index="0" disallow="tram rail_urban rail rail_electric rail_fast ship container cable_car subway aircraft wheelchair scooter drone" speed="6.77" length="9.37" shape="1142.49,1137.52 1140.48,1135.83 1138.42,1135.10 1136.33,1135.36 1134.20,1136.59"/>
    </edge>
    <edge id=":2230280818_1" function="internal">
        <lane id=":2230280818_1_0" index="0" disallow="tram rail_urban rail rail_electric rail_fast ship container cable_car subway aircraft wheelchair scooter drone" speed="6.37" length="9.04" shape="1145.46,1127.59 1143.75,1129.41 1143.08,1131.31 1143.45,1133.30 1144.85,1135.36"/>
    </edge>
    <edge id=":2230280818_2" function="internal">
        <lane id=":2230280818_2_0" index="0" disallow="tram rail_urban rail rail_electric rail_fast ship container cable_car subway aircraft wheelchair scooter drone" speed="13.89" length="14.42" shape="1145.46,1127.59 1134.20,1136.59"/>
    </edge>
    <edge id=":2230310614_0" function="internal">
        <lane id=":2230310614_0_0" index="0" disallow="tram rail_urban rail rail_electric rail_fast ship container cable_car subway aircraft wheelchair scooter drone" speed="6.51" length="8.86" shape="1296.20,1445.50 1297.68,1443.59 1298.22,1441.65 1297.80,1439.69 1296.43,1437.69"/>
    </edge>
    <edge id=":2230310614_1" function="internal">
        <lane id=":2230310614_1_0" index="0" disallow="tram rail_urban rail rail_electric rail_fast ship container cable_car subway aircraft wheelchair scooter drone" speed="13.89" length="10.73" shape="1296.20,1445.50 1298.41,1443.34 1300.09,1441.79 1301.93,1440.45 1304.59,1438.91"/>
    </edge>
    <edge id=":2230608746_0" function="internal">
        <lane id=":2230608746_0_0" index="0" disallow="tram rail_urban rail rail_electric rail_fast ship container cable_car subway aircraft wheelchair scooter drone" speed="9.30" length="11.88" shape="354.66,1181.36 358.20,1182.44 361.27,1182.76 363.87,1182.33 366.01,1181.14"/>
    </edge>
    <edge id=":2230608746_1" function="internal">
        <lane id=":2230608746_1_0" index="0" disallow="tram rail_urban rail rail_electric rail_fast ship container cable_car subway aircraft wheelchair scooter drone" speed="5.75" length="9.17" shape="354.84,1191.18 356.54,1189.08 356.89,1187.23 355.88,1185.66 353.50,1184.34"/>
    </edge>
    <edge id=":2230608746_2" function="internal">
        <lane id=":2230608746_2_0" index="0" disallow="tram rail_urban rail rail_electric rail_fast ship container cable_car subway aircraft wheelchair scooter drone" speed="16.67" length="14.81" shape="354.84,1191.18 366.01,1181.14"/>
        <lane id=":2230608746_2_1" index="1" disallow="tram rail_urban rail rail_electric rail_fast ship container cable_car subway aircraft wheelchair scooter drone" speed="16.67" length="14.81" shape="357.03,1193.52 368.05,1183.61"/>
        <lane id=":2230608746_2_2" index="2" disallow="tram rail_urban rail rail_electric rail_fast ship container cable_car subway aircraft wheelchair scooter drone" speed="16.67" length="14.81" shape="359.22,1195.85 370.08,1186.08"/>
    </edge>
    <edge id=":411917821_0" function="internal">
        <lane id=":411917821_0_0" index="0" disallow="tram rail_urban rail rail_electric rail_fast ship container cable_car subway aircraft wheelchair scooter drone" speed="8.44" length="12.41" shape="482.70,1288.82 480.80,1286.25 478.41,1284.63 475.53,1283.97 472.17,1284.27"/>
    </edge>
    <edge id=":411917821_1" function="internal">
        <lane id=":411917821_1_0" index="0" disallow="tram rail_urban rail rail_electric rail_fast ship container cable_car subway aircraft wheelchair scooter drone" speed="15.28" length="17.76" shape="482.70,1288.82 473.81,1273.71"/>
        <lane id=":411917821_1_1" index="1" disallow="tram rail_urban rail rail_electric rail_fast ship container cable_car subway aircraft wheelchair scooter drone" speed="15.28" length="17.76" shape="482.70,1288.82 481.40,1285.40 480.50,1281.61 479.16,1277.22 476.52,1272.01"/>
    </edge>
    <edge id=":411917821_3" function="internal">
        <lane id=":411917821_3_0" index="0" disallow="tram rail_urban rail rail_electric rail_fast ship container cable_car subway aircraft wheelchair scooter drone" speed="7.81" length="10.88" shape="488.39,1277.66 486.19,1280.15 484.98,1282.58 484.75,1284.96 485.51,1287.29"/>
    </edge>
    <edge id=":411917821_4" function="internal">
        <lane id=":411917821_4_0" index="0" disallow="tram rail_urban rail rail_electric rail_fast ship container cable_car subway aircraft wheelchair scooter drone" speed="15.28" length="17.85" shape="488.39,1277.66 483.84,1281.07 479.71,1282.81 475.87,1283.63 472.17,1284.27"/>
    </edge>
    <edge id=":411917821_5" function="internal">
        <lane id=":411917821_5_0" index="0" disallow="tram rail_urban rail rail_electric rail_fast ship container cable_car subway aircraft wheelchair scooter drone" speed="7.70" length="14.97" shape="486.20,1275.32 482.74,1277.73 479.52,1278.27 476.54,1276.93 473.81,1273.71"/>
        <lane id=":411917821_5_1" index="1" disallow="tram rail_urban rail rail_electric rail_fast ship container cable_car subway aircraft wheelchair scooter drone" speed="6.13" length="9.06" shape="484.02,1272.98 481.92,1274.44 479.97,1274.77 478.17,1273.95 476.52,1272.01"/>
    </edge>
    <edge id=":411917821_7" function="internal">
        <lane id=":411917821_7_0" index="0" disallow="tram rail_urban rail rail_electric rail_fast ship container cable_car subway aircraft wheelchair scooter drone" speed="6.07" length="9.80" shape="471.50,1281.14 473.95,1280.18 475.15,1278.62 475.11,1276.46 473.81,1273.71"/>
    </edge>
    <edge id=":411917821_8" function="internal">
        <lane id=":411917821_8_0" index="0" disallow="tram rail_urban rail rail_electric rail_fast ship container cable_car subway aircraft wheelchair scooter drone" speed="9.67" length="16.55" shape="471.50,1281.14 475.96,1280.76 479.78,1281.65 482.96,1283.83 485.51,1287.29"/>
    </edge>
    <edge id=":411917924_0" function="internal">
        <lane id=":411917924_0_0" index="0" disallow="tram rail_urban rail rail_electric rail_fast ship container cable_car subway aircraft wheelchair scooter drone" speed="13.89" length="11.20" shape="1134.19,1606.44 1126.41,1598.39"/>
        <lane id=":411917924_0_1" index="1" disallow="tram rail_urban rail rail_electric rail_fast ship container cable_car subway aircraft wheelchair scooter drone" speed="13.89" length="11.20" shape="1136.49,1604.22 1128.71,1596.17"/>
        <lane id=":411917924_0_2" index="2" disallow="tram rail_urban rail rail_electric rail_fast ship container cable_car subway aircraft wheelchair scooter drone" speed="13.89" length="11.20" shape="1138.79,1602.00 1131.01,1593.94"/>
    </edge>
    <edge id=":411917924_3" function="internal">
        <lane id=":411917924_3_0" index="0" disallow="tram rail_urban rail rail_electric rail_fast ship container cable_car subway aircraft wheelchair scooter drone" speed="6.49" length="9.03" shape="1138.79,1602.00 1137.34,1599.99 1136.89,1598.00 1137.43,1596.04 1138.97,1594.10"/>
    </edge>
    <edge id=":411918058_0" function="internal">
        <lane id=":411918058_0_0" index="0" disallow="tram rail_urban rail rail_electric rail_fast ship container cable_car subway aircraft wheelchair scooter drone" speed="6.88" length="8.41" shape="1279.12,727.75 1280.24,725.62 1280.61,723.62 1280.22,721.76 1279.08,720.03"/>
        <lane id=":411918058_0_1" index="1" disallow="tram rail_urban rail rail_electric rail_fast ship container cable_car subway aircraft wheelchair scooter drone" speed="7.72" length="10.80" shape="1279.12,727.75 1281.09,724.47 1282.13,721.73 1282.25,719.53 1281.45,717.87"/>
        <lane id=":411918058_0_2" index="2" disallow="tram rail_urban rail rail_electric rail_fast ship container cable_car subway aircraft wheelchair scooter drone" speed="8.53" length="13.39" shape="1279.12,727.75 1281.93,723.31 1283.65,719.83 1284.27,717.30 1283.81,715.72"/>
    </edge>
    <edge id=":411918058_3" function="internal">
        <lane id=":411918058_3_0" index="0" disallow="tram rail_urban rail rail_electric rail_fast ship container cable_car subway aircraft wheelchair scooter drone" speed="13.89" length="16.48" shape="1279.12,727.75 1282.02,723.65 1284.35,721.06 1287.17,719.02 1291.54,716.56"/>
        <lane id=":411918058_3_1" index="1" disallow="tram rail_urban rail rail_electric rail_fast ship container cable_car subway aircraft wheelchair scooter drone" speed="13.89" length="16.48" shape="1281.47,729.98 1284.28,726.00 1286.54,723.50 1289.27,721.52 1293.51,719.13"/>
        <lane id=":411918058_3_2" index="2" disallow="tram rail_urban rail rail_electric rail_fast ship container cable_car subway aircraft wheelchair scooter drone" speed="13.89" length="16.48" shape="1283.83,732.20 1286.54,728.36 1288.73,725.93 1291.37,724.02 1295.48,721.71"/>
    </edge>
    <edge id=":411918143_0" function="internal">
        <lane id=":411918143_0_0" index="0" disallow="tram rail_urban rail rail_electric rail_fast ship container cable_car subway aircraft wheelchair scooter drone" speed="13.89" length="7.62" shape="833.76,1373.60 827.73,1378.26"/>
    </edge>
    <edge id=":411918143_1" function="internal">
        <lane id=":411918143_1_0" index="0" disallow="tram rail_urban rail rail_electric rail_fast ship container cable_car subway aircraft wheelchair scooter drone" speed="13.89" length="49.64" shape="825.81,1375.69 784.78,1403.32"/>
        <lane id=":411918143_1_1" index="1" disallow="tram rail_urban rail rail_electric rail_fast ship container cable_car subway aircraft wheelchair scooter drone" speed="13.89" length="49.64" shape="825.81,1375.69 786.36,1406.10"/>
    </edge>
    <edge id=":411918292_0" function="internal">
        <lane id=":411918292_0_0" index="0" disallow="tram rail_urban rail rail_electric rail_fast ship container cable_car subway aircraft wheelchair scooter drone" speed="6.59" length="9.15" shape="1111.70,954.10 1109.71,952.53 1107.71,951.96 1105.69,952.36 1103.65,953.76"/>
    </edge>
    <edge id=":411918292_1" function="internal">
        <lane id=":411918292_1_0" index="0" disallow="tram rail_urban rail rail_electric rail_fast ship container cable_car subway aircraft wheelchair scooter drone" speed="7.96" length="14.28" shape="1111.70,954.10 1109.41,950.91 1108.71,947.78 1109.59,944.69 1112.07,941.65"/>
    </edge>
    <edge id=":411918292_2" function="internal">
        <lane id=":411918292_2_0" index="0" disallow="tram rail_urban rail rail_electric rail_fast ship container cable_car subway aircraft wheelchair scooter drone" speed="6.46" length="9.03" shape="1114.24,944.00 1112.67,945.92 1112.11,947.88 1112.56,949.86 1114.01,951.88"/>
    </edge>
    <edge id=":411918292_3" function="internal">
        <lane id=":411918292_3_0" index="0" disallow="tram rail_urban rail rail_electric rail_fast ship container cable_car subway aircraft wheelchair scooter drone" speed="13.89" length="14.40" shape="1114.24,944.00 1103.65,953.76"/>
    </edge>
    <edge id=":411918292_4" function="internal">
        <lane id=":411918292_4_0" index="0" disallow="tram rail_urban rail rail_electric rail_fast ship container cable_car subway aircraft wheelchair scooter drone" speed="13.89" length="14.40" shape="1101.48,951.40 1112.07,941.65"/>
    </edge>
    <edge id=":411918292_5" function="internal">
        <lane id=":411918292_5_0" index="0" disallow="tram rail_urban rail rail_electric rail_fast ship container cable_car subway aircraft wheelchair scooter drone" speed="8.07" length="4.03" shape="1101.48,951.40 1104.66,949.22 1104.83,949.19"/>
    </edge>
    <edge id=":411918292_6" function="internal">
        <lane id=":411918292_6_0" index="0" disallow="tram rail_urban rail rail_electric rail_fast ship container cable_car subway aircraft wheelchair scooter drone" speed="8.07" length="10.19" shape="1104.83,949.19 1107.81,948.58 1110.93,949.46 1114.01,951.88"/>
    </edge>
    <edge id=":411918558_0" function="internal">
        <lane id=":411918558_0_0" index="0" disallow="tram rail_urban rail rail_electric rail_fast ship container cable_car subway aircraft wheelchair scooter drone" speed="16.67" length="9.37" shape="925.44,874.58 918.51,880.88"/>
        <lane id=":411918558_0_1" index="1" disallow="tram rail_urban rail rail_electric rail_fast ship container cable_car subway aircraft wheelchair scooter drone" speed="16.67" length="9.37" shape="923.29,872.20 916.35,878.52"/>
    </edge>
    <edge id=":411918558_2" function="internal">
        <lane id=":411918558_2_0" index="0" disallow="tram rail_urban rail rail_electric rail_fast ship container cable_car subway aircraft wheelchair scooter drone" speed="6.07" length="7.78" shape="923.29,872.20 921.11,873.91 919.25,874.79 917.72,874.84 916.52,874.07"/>
    </edge>
    <edge id=":411918558_3" function="internal">